60 
C60 molec optimized by CAM-B3LYPa3p, SG=m-5
  C         3.45467614     0.68963698    -0.00000000
  C         3.45467614    -0.68963698    -0.00000000
  C         2.58178216     0.72273515    -2.28526610
  C         1.16941003     3.00800125    -1.41237212
  C         1.16941003     3.00800125     1.41237212
  C         2.58178216     0.72273515     2.28526610
  C         3.00800125     1.41237212    -1.16941003
  C         3.00800125    -1.41237212     1.16941003
  C         2.58178216    -0.72273515    -2.28526610
  C         0.72273515     2.28526610    -2.58178216
  C        -0.00000000     3.45467614     0.68963698
  C         1.41237212     1.16941003     3.00800125
  C         2.28526610     2.58178216    -0.72273515
  C         2.28526610    -2.58178216     0.72273515
  C         1.41237212    -1.16941003    -3.00800125
  C        -0.72273515     2.28526610    -2.58178216
  C        -1.16941003     3.00800125     1.41237212
  C         0.68963698     0.00000000     3.45467614
  C         2.28526610     2.58178216     0.72273515
  C         2.28526610    -2.58178216    -0.72273515
  C         0.68963698    -0.00000000    -3.45467614
  C        -1.16941003     3.00800125    -1.41237212
  C        -0.72273515     2.28526610     2.58178216
  C         1.41237212    -1.16941003     3.00800125
  C         3.00800125     1.41237212     1.16941003
  C         3.00800125    -1.41237212    -1.16941003
  C         1.41237212     1.16941003    -3.00800125
  C        -0.00000000     3.45467614    -0.68963698
  C         0.72273515     2.28526610     2.58178216
  C         2.58178216    -0.72273515     2.28526610
  C        -3.45467614    -0.68963698    -0.00000000
  C        -3.45467614     0.68963698    -0.00000000
  C        -2.58178216    -0.72273515     2.28526610
  C        -1.16941003    -3.00800125     1.41237212
  C        -1.16941003    -3.00800125    -1.41237212
  C        -2.58178216    -0.72273515    -2.28526610
  C        -3.00800125    -1.41237212     1.16941003
  C        -3.00800125     1.41237212    -1.16941003
  C        -2.58178216     0.72273515     2.28526610
  C        -0.72273515    -2.28526610     2.58178216
  C        -0.00000000    -3.45467614    -0.68963698
  C        -1.41237212    -1.16941003    -3.00800125
  C        -2.28526610    -2.58178216     0.72273515
  C        -2.28526610     2.58178216    -0.72273515
  C        -1.41237212     1.16941003     3.00800125
  C         0.72273515    -2.28526610     2.58178216
  C         1.16941003    -3.00800125    -1.41237212
  C        -0.68963698     0.00000000    -3.45467614
  C        -2.28526610    -2.58178216    -0.72273515
  C        -2.28526610     2.58178216     0.72273515
  C        -0.68963698    -0.00000000     3.45467614
  C         1.16941003    -3.00800125     1.41237212
  C         0.72273515    -2.28526610    -2.58178216
  C        -1.41237212     1.16941003    -3.00800125
  C        -3.00800125    -1.41237212    -1.16941003
  C        -3.00800125     1.41237212     1.16941003
  C        -1.41237212    -1.16941003     3.00800125
  C        -0.00000000    -3.45467614     0.68963698
  C        -0.72273515    -2.28526610    -2.58178216
  C        -2.58178216     0.72273515    -2.28526610
