24 
carbazoleNO2b molec optimized by CAM-B3LYPa3p, SG=m
  C         2.50836179     1.44895583     0.00000000
  C         3.61057177     0.61780266     0.00000000
  C         3.47435884    -0.77205169     0.00000000
  C         2.22544735    -1.35875767     0.00000000
  C         1.10068271    -0.54260870     0.00000000
  C         1.25699942     0.85182037     0.00000000
  H         2.61862497     2.52510093     0.00000000
  H         4.60101587     1.05299530     0.00000000
  H         4.35999214    -1.39254886     0.00000000
  H         2.12648351    -2.43651464     0.00000000
  C        -2.34155136     0.54838725     0.00000000
  C        -3.09494208    -0.61358792     0.00000000
  C        -2.47439892    -1.85109217     0.00000000
  C        -1.08992337    -1.94641830     0.00000000
  C        -0.32335206    -0.79608227     0.00000000
  C        -0.94985655     0.47197718     0.00000000
  N        -3.01056471     1.83154837     0.00000000
  O        -2.30529733     2.83206452     0.00000000
  O        -4.22108456     1.86005799     0.00000000
  H        -4.17078070    -0.52584251     0.00000000
  H        -3.07820460    -2.74723145     0.00000000
  H        -0.61408001    -2.91857312     0.00000000
  N         0.00582367     1.44003282     0.00000000
  H        -0.21432578     2.42056609     0.00000000
