22 
carbazole molec optimized by CAM-B3LYPa3p, SG=mm2y
  C         2.46497600     1.25564241     0.00000000
  C         3.40342300     0.24287341     0.00000000
  C         3.02253300    -1.10037159     0.00000000
  C         1.68812000    -1.45391159     0.00000000
  C         0.72304100    -0.45394859     0.00000000
  C         1.12541600     0.89340741     0.00000000
  H         2.76704800     2.29497241     0.00000000
  H         4.45538300     0.49620941     0.00000000
  H         3.78338600    -1.86900059     0.00000000
  H         1.39853600    -2.49692959     0.00000000
  C        -2.46497600     1.25564241     0.00000000
  C        -3.40342300     0.24287341     0.00000000
  C        -3.02253300    -1.10037159     0.00000000
  C        -1.68812000    -1.45391159     0.00000000
  C        -0.72304100    -0.45394859     0.00000000
  C        -1.12541600     0.89340741     0.00000000
  H        -2.76704800     2.29497241     0.00000000
  H        -4.45538300     0.49620941     0.00000000
  H        -3.78338600    -1.86900059     0.00000000
  H        -1.39853600    -2.49692959     0.00000000
  N         0.00000000     1.68967941     0.00000000
  H         0.00000000     2.69243441     0.00000000
