26 
DBTTF molec optimized by CAM-B3LYPa3p, SG=mmm
  S         1.61666500     1.48184600     0.00000000
  C         0.66791200     0.00000000     0.00000000
  S         1.61666500    -1.48184600     0.00000000
  C         3.18060400    -0.69509200     0.00000000
  C         4.37784100    -1.39150300     0.00000000
  C         5.57266600    -0.69300100     0.00000000
  C         5.57266600     0.69300100     0.00000000
  C         4.37784100     1.39150300     0.00000000
  C         3.18060400     0.69509200     0.00000000
  S        -1.61666500    -1.48184600     0.00000000
  C        -0.66791200     0.00000000     0.00000000
  S        -1.61666500     1.48184600     0.00000000
  C        -3.18060400     0.69509200     0.00000000
  C        -4.37784100     1.39150300     0.00000000
  C        -5.57266600     0.69300100     0.00000000
  C        -5.57266600    -0.69300100     0.00000000
  C        -4.37784100    -1.39150300     0.00000000
  C        -3.18060400    -0.69509200     0.00000000
  H         4.37627600    -2.47340700     0.00000000
  H         6.50807700    -1.23558000     0.00000000
  H         6.50807700     1.23558000     0.00000000
  H         4.37627600     2.47340700     0.00000000
  H        -4.37627600     2.47340700     0.00000000
  H        -6.50807700     1.23558000     0.00000000
  H        -6.50807700    -1.23558000     0.00000000
  H        -4.37627600    -2.47340700     0.00000000
