36 
DNTT molec optimized by CAM-B3LYPa3p, SG=2/m
  S         0.51741685     2.03460695     0.00000000
  S        -0.51741685    -2.03460695     0.00000000
  C        -1.79970523     0.27897756     0.00000000
  C         0.39179585    -0.55403465     0.00000000
  C         2.01815124     1.13085007     0.00000000
  C        -2.01815124    -1.13085007     0.00000000
  C        -2.87448581     1.13197125     0.00000000
  C         1.79970523    -0.27897756     0.00000000
  C        -0.39179585     0.55403465     0.00000000
  C         3.28001717     1.65177794     0.00000000
  C        -5.71711133    -1.27986808     0.00000000
  C        -3.28001717    -1.65177794     0.00000000
  C         5.31571387    -1.47606784     0.00000000
  C        -4.38910302    -0.78552574     0.00000000
  C         4.18310973    -0.62278335     0.00000000
  C         2.87448581    -1.13197125     0.00000000
  C        -4.18310973     0.62278335     0.00000000
  C        -5.31571387     1.47606784     0.00000000
  C        -6.57626807     0.96684529     0.00000000
  C         4.38910302     0.78552574     0.00000000
  C         5.71711133     1.27986808     0.00000000
  C         6.57626807    -0.96684529     0.00000000
  C         6.77982254     0.43120730     0.00000000
  C        -6.77982254    -0.43120730     0.00000000
  H        -2.72322910     2.20442948     0.00000000
  H         3.44298679     2.72207645     0.00000000
  H        -5.87121581    -2.35178324     0.00000000
  H        -3.44298679    -2.72207645     0.00000000
  H         5.15641036    -2.54721237     0.00000000
  H         2.72322910    -2.20442948     0.00000000
  H        -5.15641036     2.54721237     0.00000000
  H        -7.43050776     1.63076782     0.00000000
  H         5.87121581     2.35178324     0.00000000
  H         7.43050776    -1.63076782     0.00000000
  H         7.78797065     0.82392129     0.00000000
  H        -7.78797065    -0.82392129     0.00000000
