32 
ICZb molec optimized by CAM-B3LYPa3p, SG=2/m
  C         5.05865100     1.12266007     0.00000000
  C         5.47226480    -0.21055458     0.00000000
  C         3.71507900     1.44111970     0.00000000
  C         2.77543096     0.41767591     0.00000000
  C         4.55918520    -1.24669804     0.00000000
  C         3.21018319    -0.92029473     0.00000000
  C         1.32979508     0.38807878     0.00000000
  N         2.10843308    -1.74394850     0.00000000
  C         0.95529838    -0.97677236     0.00000000
  C         0.36412271     1.38438254     0.00000000
  C        -0.95529838     0.97677236     0.00000000
  C        -1.32979508    -0.38807878     0.00000000
  C        -0.36412271    -1.38438254     0.00000000
  N        -2.10843308     1.74394850     0.00000000
  C        -3.21018319     0.92029473     0.00000000
  C        -2.77543096    -0.41767591     0.00000000
  C        -4.55918520     1.24669804     0.00000000
  C        -5.47226480     0.21055458     0.00000000
  C        -5.05865100    -1.12266007     0.00000000
  C        -3.71507900    -1.44111970     0.00000000
  H         4.88772951    -2.27798157     0.00000000
  H         6.53017657    -0.43801189     0.00000000
  H         5.79965396     1.91039790     0.00000000
  H         3.39948182     2.47674963     0.00000000
  H         0.63546725     2.43225852     0.00000000
  H        -0.63546725    -2.43225852     0.00000000
  H        -2.13488366     2.74596691     0.00000000
  H         2.13488366    -2.74596691     0.00000000
  H        -3.39948182    -2.47674963     0.00000000
  H        -5.79965396    -1.91039790     0.00000000
  H        -4.88772951     2.27798157     0.00000000
  H        -6.53017657     0.43801189     0.00000000
