34 
IF12b molec optimized by CAM-B3LYPa3p, SG=2/m
  C         0.38045533     1.36108099     0.00000000
  C         1.33104825     0.34981955     0.00000000
  C         0.95096237    -0.99854387     0.00000000
  C         2.17391623    -1.87894359     0.00000000
  C         3.30300184    -0.88228444     0.00000000
  C         4.66567160    -1.10048980     0.00000000
  C         5.52292265    -0.00880327     0.00000000
  C         5.01792736     1.28443237     0.00000000
  C         3.65079885     1.50830208     0.00000000
  C         2.79405738     0.41926521     0.00000000
  C        -0.38045533    -1.36108099     0.00000000
  C        -1.33104825    -0.34981955     0.00000000
  C        -0.95096237     0.99854387     0.00000000
  C        -2.17391623     1.87894359     0.00000000
  C        -3.30300184     0.88228444     0.00000000
  C        -4.66567160     1.10048980     0.00000000
  C        -5.52292265     0.00880327     0.00000000
  C        -5.01792736    -1.28443237     0.00000000
  C        -3.65079885    -1.50830208     0.00000000
  C        -2.79405738    -0.41926521     0.00000000
  H         0.67508722     2.40371531     0.00000000
  H         5.06587656    -2.10701654     0.00000000
  H         6.59347219    -0.16605052     0.00000000
  H         5.69971485     2.12477934     0.00000000
  H         3.26399618     2.51944132     0.00000000
  H        -0.67508722    -2.40371531     0.00000000
  H        -5.06587656     2.10701654     0.00000000
  H        -6.59347219     0.16605052     0.00000000
  H        -5.69971485    -2.12477934     0.00000000
  H        -3.26399618    -2.51944132     0.00000000
  H         2.20656192    -2.52952227     0.87770600
  H         2.20656192    -2.52952227    -0.87770600
  H        -2.20656192     2.52952227    -0.87770600
  H        -2.20656192     2.52952227     0.87770600
