30 
indigo molec optimized by CAM-B3LYPa3p, SG=2/m
  N         1.51077653     1.07715000     0.00000000
  H         1.16670117     2.02351641     0.00000000
  C         0.67144302    -0.01317140     0.00000000
  C         1.50858775    -1.24264364     0.00000000
  C         2.88442367    -0.74357450     0.00000000
  C         4.10142392    -1.40468151     0.00000000
  H         4.12690127    -2.48642467     0.00000000
  C         5.26155799    -0.65534700     0.00000000
  H         6.22622543    -1.14294053     0.00000000
  C         5.19154052     0.73826800     0.00000000
  H         6.11024871     1.31064480     0.00000000
  C         3.98478308     1.41495194     0.00000000
  H         3.95068593     2.49599105     0.00000000
  C         2.82478044     0.65611329     0.00000000
  O         1.07808654    -2.38086195     0.00000000
  N        -1.51077653    -1.07715000     0.00000000
  H        -1.16670117    -2.02351641     0.00000000
  C        -0.67144302     0.01317140     0.00000000
  C        -1.50858775     1.24264364     0.00000000
  C        -2.88442367     0.74357450     0.00000000
  C        -4.10142392     1.40468151     0.00000000
  H        -4.12690127     2.48642467     0.00000000
  C        -5.26155799     0.65534700     0.00000000
  H        -6.22622543     1.14294053     0.00000000
  C        -5.19154052    -0.73826800     0.00000000
  H        -6.11024871    -1.31064480     0.00000000
  C        -3.98478308    -1.41495194     0.00000000
  H        -3.95068593    -2.49599105     0.00000000
  C        -2.82478044    -0.65611329     0.00000000
  O        -1.07808654     2.38086195     0.00000000
