18 
naphthalene molec optimized by CAM-B3LYPa3p, SG=mmm
  C        -2.41453400     0.70460100     0.00000000
  C        -1.23747000     1.39136100     0.00000000
  C         0.00000000     0.70806700     0.00000000
  C         1.23747000     1.39136100     0.00000000
  C         2.41453400     0.70460100     0.00000000
  H        -3.35538500     1.23905800     0.00000000
  H        -1.23419200     2.47443500     0.00000000
  H         1.23419200     2.47443500     0.00000000
  H         3.35538500     1.23905800     0.00000000
  C         2.41453400    -0.70460100     0.00000000
  C         1.23747000    -1.39136100     0.00000000
  C         0.00000000    -0.70806700     0.00000000
  C        -1.23747000    -1.39136100     0.00000000
  C        -2.41453400    -0.70460100     0.00000000
  H         3.35538500    -1.23905800     0.00000000
  H         1.23419200    -2.47443500     0.00000000
  H        -1.23419200    -2.47443500     0.00000000
  H        -3.35538500    -1.23905800     0.00000000
