24 
NDT molec optimized by CAM-B3LYPa3p, SG=2/m
  S        -2.79743737     1.97727196     0.00000000
  S         2.79743737    -1.97727196     0.00000000
  C        -0.32880917     0.62458644     0.00000000
  C         0.32880917    -0.62458644     0.00000000
  C        -1.74597503     0.60614168     0.00000000
  C         1.74597503    -0.60614168     0.00000000
  C        -2.47381402    -0.57810263     0.00000000
  C         2.47381402     0.57810263     0.00000000
  C        -0.42588244    -1.82749099     0.00000000
  C         0.42588244     1.82749099     0.00000000
  C        -1.78355629    -1.81156953     0.00000000
  C         1.78355629     1.81156953     0.00000000
  C        -3.88519199    -0.34549091     0.00000000
  C         3.88519199     0.34549091     0.00000000
  C        -4.19184027     0.96744457     0.00000000
  C         4.19184027    -0.96744457     0.00000000
  H         0.09988899    -2.77346019     0.00000000
  H        -0.09988899     2.77346019     0.00000000
  H        -2.34340249    -2.73783095     0.00000000
  H         2.34340249     2.73783095     0.00000000
  H        -4.62330796    -1.13430334     0.00000000
  H         4.62330796     1.13430334     0.00000000
  H        -5.17266047     1.41405748     0.00000000
  H         5.17266047    -1.41405748     0.00000000
