42 
OPV3CN molec optimized by CAM-B3LYPa3p, SG=2/m
  C        -8.06785732     0.16343681     0.00000000
  C        -7.37157648    -1.03463104     0.00000000
  C        -5.99019718    -1.04878704     0.00000000
  C        -5.26917106     0.14892933     0.00000000
  C        -5.98955653     1.34761439     0.00000000
  C        -7.37014850     1.35897600     0.00000000
  H        -7.91024129    -1.97283323     0.00000000
  H        -5.48115160    -1.99872239     0.00000000
  H        -5.44919384     2.28612566     0.00000000
  H        -7.90135821     2.30132203     0.00000000
  C        -3.81523777     0.26861413     0.00000000
  H        -3.49011758     1.30046110     0.00000000
  C        -2.82785738    -0.64413512     0.00000000
  C        -3.11390348    -2.04743655     0.00000000
  N        -3.29911690    -3.17902084     0.00000000
  C        -1.38461267    -0.29887464     0.00000000
  C        -0.42073761    -1.30609793     0.00000000
  C         0.92710388    -1.01596213     0.00000000
  C         1.38461267     0.29887464     0.00000000
  C         0.42073761     1.30609793     0.00000000
  C        -0.92710388     1.01596213     0.00000000
  H        -0.72806448    -2.34263140     0.00000000
  H         1.61904385    -1.84522856     0.00000000
  H         0.72806448     2.34263140     0.00000000
  H        -1.61904385     1.84522856     0.00000000
  C         2.82785738     0.64413512     0.00000000
  C         3.11390348     2.04743655     0.00000000
  N         3.29911690     3.17902084     0.00000000
  C         3.81523777    -0.26861413     0.00000000
  H         3.49011758    -1.30046110     0.00000000
  C         5.26917106    -0.14892933     0.00000000
  C         5.98955653    -1.34761439     0.00000000
  C         7.37014850    -1.35897600     0.00000000
  C         8.06785732    -0.16343681     0.00000000
  C         7.37157648     1.03463104     0.00000000
  C         5.99019718     1.04878704     0.00000000
  H         5.44919384    -2.28612566     0.00000000
  H         7.90135821    -2.30132203     0.00000000
  H         7.91024129     1.97283323     0.00000000
  H         5.48115160     1.99872239     0.00000000
  H        -9.14975541     0.16385523     0.00000000
  H         9.14975541    -0.16385523     0.00000000
