30 
PBBTZ molec optimized by CAM-B3LYPa3p, SG=mm2y
  N         0.00000000     1.75101757     0.00000000
  N        -2.31598100     1.44254857     0.00000000
  N         2.31598100     1.44254857     0.00000000
  S        -1.79663500    -1.71740743     0.00000000
  S         1.79663500    -1.71740743     0.00000000
  C        -0.67396300    -0.41257543     0.00000000
  C        -1.13456000     0.97455757     0.00000000
  C         0.67396300    -0.41257543     0.00000000
  C         1.13456000     0.97455757     0.00000000
  C        -3.31831600    -0.83027543     0.00000000
  C        -3.40180100     0.56875757     0.00000000
  C        -4.67070900     1.14865757     0.00000000
  C        -5.81513200     0.38190257     0.00000000
  C        -5.71800900    -1.00240643     0.00000000
  C        -4.47491200    -1.60048643     0.00000000
  C         3.31831600    -0.83027543     0.00000000
  C         3.40180100     0.56875757     0.00000000
  C         4.67070900     1.14865757     0.00000000
  C         5.81513200     0.38190257     0.00000000
  C         5.71800900    -1.00240643     0.00000000
  C         4.47491200    -1.60048643     0.00000000
  H        -4.71804600     2.22898957     0.00000000
  H        -6.78522200     0.86012857     0.00000000
  H        -6.60867300    -1.61576043     0.00000000
  H        -4.39321100    -2.68043443     0.00000000
  H         4.71804600     2.22898957     0.00000000
  H         6.78522200     0.86012857     0.00000000
  H         6.60867300    -1.61576043     0.00000000
  H         4.39321100    -2.68043443     0.00000000
  H         0.00000000     2.75659057     0.00000000
