34 
pentaceneN2Cl4 molec optimized by CAM-B3LYPa3p, SG=mmm
  N         0.00000000     1.39061900     0.00000000
  C         1.14123200     0.72002600     0.00000000
  C         2.37707300     1.40960300     0.00000000
  C         3.57449500     0.72453500     0.00000000
  C         4.83921400     1.39893600     0.00000000
  C         5.99914300     0.71264900     0.00000000
  C         5.99914300    -0.71264900     0.00000000
  C         4.83921400    -1.39893600     0.00000000
  C         3.57449500    -0.72453500     0.00000000
  C         2.37707300    -1.40960300     0.00000000
  C         1.14123200    -0.72002600     0.00000000
  N         0.00000000    -1.39061900     0.00000000
  C        -1.14123200    -0.72002600     0.00000000
  C        -2.37707300    -1.40960300     0.00000000
  C        -3.57449500    -0.72453500     0.00000000
  C        -4.83921400    -1.39893600     0.00000000
  C        -5.99914300    -0.71264900     0.00000000
  C        -5.99914300     0.71264900     0.00000000
  C        -4.83921400     1.39893600     0.00000000
  C        -3.57449500     0.72453500     0.00000000
  C        -2.37707300     1.40960300     0.00000000
  C        -1.14123200     0.72002600     0.00000000
  Cl        2.33568700     3.13105300     0.00000000
  H         4.84067600     2.47765600     0.00000000
  H         6.94116700     1.24433200     0.00000000
  H         6.94116700    -1.24433200     0.00000000
  H         4.84067600    -2.47765600     0.00000000
  Cl        2.33568700    -3.13105300     0.00000000
  Cl       -2.33568700    -3.13105300     0.00000000
  H        -4.84067600    -2.47765600     0.00000000
  H        -6.94116700    -1.24433200     0.00000000
  H        -6.94116700     1.24433200     0.00000000
  H        -4.84067600     2.47765600     0.00000000
  Cl       -2.33568700     3.13105300     0.00000000
