36 
pentacene molec optimized by CAM-B3LYPa3p, SG=mmm
  C         0.00000000     1.39653800     0.00000000
  C         1.21578600     0.72032800     0.00000000
  C         2.45192500     1.39677700     0.00000000
  C         3.64752000     0.72130100     0.00000000
  C         4.90929500     1.40156100     0.00000000
  C         6.07034700     0.71523900     0.00000000
  C         6.07034700    -0.71523900     0.00000000
  C         4.90929500    -1.40156100     0.00000000
  C         3.64752000    -0.72130100     0.00000000
  C         2.45192500    -1.39677700     0.00000000
  C         1.21578600    -0.72032800     0.00000000
  C         0.00000000    -1.39653800     0.00000000
  C        -1.21578600    -0.72032800     0.00000000
  C        -2.45192500    -1.39677700     0.00000000
  C        -3.64752000    -0.72130100     0.00000000
  C        -4.90929500    -1.40156100     0.00000000
  C        -6.07034700    -0.71523900     0.00000000
  C        -6.07034700     0.71523900     0.00000000
  C        -4.90929500     1.40156100     0.00000000
  C        -3.64752000     0.72130100     0.00000000
  C        -2.45192500     1.39677700     0.00000000
  C        -1.21578600     0.72032800     0.00000000
  H         0.00000000     2.48017600     0.00000000
  H         2.45239700     2.48050500     0.00000000
  H         4.90762400     2.48447000     0.00000000
  H         7.01504500     1.24274800     0.00000000
  H         7.01504500    -1.24274800     0.00000000
  H         4.90762400    -2.48447000     0.00000000
  H         2.45239700    -2.48050500     0.00000000
  H         0.00000000    -2.48017600     0.00000000
  H        -2.45239700    -2.48050500     0.00000000
  H        -4.90762400    -2.48447000     0.00000000
  H        -7.01504500    -1.24274800     0.00000000
  H        -7.01504500     1.24274800     0.00000000
  H        -4.90762400     2.48447000     0.00000000
  H        -2.45239700     2.48050500     0.00000000
