41 
spirobifluorene molec optimized by CAM-B3LYPa3p, SG=-42m
  C         0.00000000     0.00000000     0.00000000
  C         2.52553200     0.00000000    -0.67539100
  C         3.43531500     0.00000000    -1.72303100
  C         2.99608400     0.00000000    -3.04019600
  C         1.64173600     0.00000000    -3.33236700
  C         0.73317300     0.00000000    -2.28687600
  C         1.17704700     0.00000000    -0.96509900
  H         2.87105100     0.00000000     0.35067400
  H         4.49655400     0.00000000    -1.51217300
  H         3.71909000     0.00000000    -3.84529400
  H         1.30466500     0.00000000    -4.36108400
  C        -2.52553200     0.00000000    -0.67539100
  C        -3.43531500     0.00000000    -1.72303100
  C        -2.99608400     0.00000000    -3.04019600
  C        -1.64173600     0.00000000    -3.33236700
  C        -0.73317300     0.00000000    -2.28687600
  C        -1.17704700     0.00000000    -0.96509900
  H        -2.87105100     0.00000000     0.35067400
  H        -4.49655400     0.00000000    -1.51217300
  H        -3.71909000     0.00000000    -3.84529400
  H        -1.30466500     0.00000000    -4.36108400
  C         0.00000000     2.52553200     0.67539100
  C         0.00000000     3.43531500     1.72303100
  C         0.00000000     2.99608400     3.04019600
  C         0.00000000     1.64173600     3.33236700
  C         0.00000000     0.73317300     2.28687600
  C         0.00000000     1.17704700     0.96509900
  H         0.00000000     2.87105100    -0.35067400
  H         0.00000000     4.49655400     1.51217300
  H         0.00000000     3.71909000     3.84529400
  H         0.00000000     1.30466500     4.36108400
  C         0.00000000    -2.52553200     0.67539100
  C         0.00000000    -3.43531500     1.72303100
  C         0.00000000    -2.99608400     3.04019600
  C         0.00000000    -1.64173600     3.33236700
  C         0.00000000    -0.73317300     2.28687600
  C         0.00000000    -1.17704700     0.96509900
  H         0.00000000    -2.87105100    -0.35067400
  H         0.00000000    -4.49655400     1.51217300
  H         0.00000000    -3.71909000     3.84529400
  H         0.00000000    -1.30466500     4.36108400
