41 
spirobidibenzosilole molec optimized by CAM-B3LYPa3p, SG=-42m
  Si        0.00000000     0.00000000     0.00000000
  C         2.72081000     0.00000000    -1.19142300
  C         3.51378300     0.00000000    -2.32869300
  C         2.92060300     0.00000000    -3.58093000
  C         1.54119500     0.00000000    -3.70671200
  C         0.74325200     0.00000000    -2.57160700
  C         1.33951500     0.00000000    -1.30030900
  H         3.18999100     0.00000000    -0.21495700
  H         4.59220800     0.00000000    -2.23998500
  H         3.53863200     0.00000000    -4.46953500
  H         1.09753800     0.00000000    -4.69354600
  C        -2.72081000     0.00000000    -1.19142300
  C        -3.51378300     0.00000000    -2.32869300
  C        -2.92060300     0.00000000    -3.58093000
  C        -1.54119500     0.00000000    -3.70671200
  C        -0.74325200     0.00000000    -2.57160700
  C        -1.33951500     0.00000000    -1.30030900
  H        -3.18999100     0.00000000    -0.21495700
  H        -4.59220800     0.00000000    -2.23998500
  H        -3.53863200     0.00000000    -4.46953500
  H        -1.09753800     0.00000000    -4.69354600
  C         0.00000000     2.72081000     1.19142300
  C         0.00000000     3.51378300     2.32869300
  C         0.00000000     2.92060300     3.58093000
  C         0.00000000     1.54119500     3.70671200
  C         0.00000000     0.74325200     2.57160700
  C         0.00000000     1.33951500     1.30030900
  H         0.00000000     3.18999100     0.21495700
  H         0.00000000     4.59220800     2.23998500
  H         0.00000000     3.53863200     4.46953500
  H         0.00000000     1.09753800     4.69354600
  C         0.00000000    -2.72081000     1.19142300
  C         0.00000000    -3.51378300     2.32869300
  C         0.00000000    -2.92060300     3.58093000
  C         0.00000000    -1.54119500     3.70671200
  C         0.00000000    -0.74325200     2.57160700
  C         0.00000000    -1.33951500     1.30030900
  H         0.00000000    -3.18999100     0.21495700
  H         0.00000000    -4.59220800     2.23998500
  H         0.00000000    -3.53863200     4.46953500
  H         0.00000000    -1.09753800     4.69354600
