20 
TCNQ-F2 molec optimized by CAM-B3LYPa3p, SG=2/m
  C         1.43888236     0.00484501     0.00000000
  C         0.64542791     1.21957865     0.00000000
  C         0.68876458    -1.22631552     0.00000000
  C         2.80153271    -0.00209850     0.00000000
  C         3.63523051     1.15494916     0.00000000
  C         3.50693460    -1.24392655     0.00000000
  N         4.36942700     2.03427429     0.00000000
  N         4.05778306    -2.24867364     0.00000000
  F         1.30275105     2.36933830     0.00000000
  H         1.21060124    -2.17278674     0.00000000
  C        -1.43888236    -0.00484501     0.00000000
  C        -0.64542791    -1.21957865     0.00000000
  C        -0.68876458     1.22631552     0.00000000
  C        -2.80153271     0.00209850     0.00000000
  C        -3.63523051    -1.15494916     0.00000000
  C        -3.50693460     1.24392655     0.00000000
  N        -4.36942700    -2.03427429     0.00000000
  N        -4.05778306     2.24867364     0.00000000
  F        -1.30275105    -2.36933830     0.00000000
  H        -1.21060124     2.17278674     0.00000000
