30 
triphenylene molec optimized by CAM-B3LYPa3p, SG=-62myx
  C         0.73139707    -1.23324127     0.00000000
  C         1.43371680    -0.01678781     0.00000000
  C         0.70231973     1.25002908     0.00000000
  C        -0.70231973     1.25002908     0.00000000
  C        -1.43371680    -0.01678781     0.00000000
  C        -0.73139707    -1.23324127     0.00000000
  C         1.46330727    -2.43002076     0.00000000
  C         2.83474829    -2.43963801     0.00000000
  C         3.53016264    -1.23514503     0.00000000
  C         2.83611334    -0.05225089     0.00000000
  C         1.37280607     2.48227165     0.00000000
  C         0.69541435     3.67478304     0.00000000
  C        -0.69541435     3.67478304     0.00000000
  C        -1.37280607     2.48227165     0.00000000
  C        -2.83611334    -0.05225089     0.00000000
  C        -3.53016264    -1.23514503     0.00000000
  C        -2.83474829    -2.43963801     0.00000000
  C        -1.46330727    -2.43002076     0.00000000
  H         0.94767555    -3.37742803     0.00000000
  H         3.36890449    -3.38045211     0.00000000
  H         4.61200965    -1.22733081     0.00000000
  H         3.39877625     0.86800291     0.00000000
  H         2.45110070     2.50942512     0.00000000
  H         1.24310516     4.60778292     0.00000000
  H        -1.24310516     4.60778292     0.00000000
  H        -2.45110070     2.50942512     0.00000000
  H        -3.39877625     0.86800291     0.00000000
  H        -4.61200965    -1.22733081     0.00000000
  H        -3.36890449    -3.38045211     0.00000000
  H        -0.94767555    -3.37742803     0.00000000
