34 
triptycene molec optimized by CAM-B3LYPa3p, SG=-62m
  C         0.00000000     0.00000000     1.28840700
  H         0.00000000     0.00000000     2.37640700
  C         0.00000000     0.00000000    -1.28840700
  H         0.00000000     0.00000000    -2.37640700
  C         1.39997861     0.00000000     0.69693100
  C         1.39997861    -0.00000000    -0.69693100
  C         2.58887114     0.00000000    -1.39284300
  C         3.79000572     0.00000000    -0.69119400
  C         3.79000572     0.00000000     0.69119400
  C         2.58887114     0.00000000     1.39284300
  H         2.58988256     0.00000000    -2.47593300
  H         4.72762679     0.00000000    -1.23121400
  H         4.72762679     0.00000000     1.23121400
  H         2.58988256     0.00000000     2.47593300
  C        -0.69998931     1.21241705     0.69693100
  C        -0.69998931     1.21241705    -0.69693100
  C        -1.29443557     2.24202817    -1.39284300
  C        -1.89500286     3.28224124    -0.69119400
  C        -1.89500286     3.28224124     0.69119400
  C        -1.29443557     2.24202817     1.39284300
  H        -1.29494128     2.24290409    -2.47593300
  H        -2.36381339     4.09424490    -1.23121400
  H        -2.36381339     4.09424490     1.23121400
  H        -1.29494128     2.24290409     2.47593300
  C        -0.69998931    -1.21241705     0.69693100
  C        -0.69998931    -1.21241705    -0.69693100
  C        -1.29443557    -2.24202817    -1.39284300
  C        -1.89500286    -3.28224124    -0.69119400
  C        -1.89500286    -3.28224124     0.69119400
  C        -1.29443557    -2.24202817     1.39284300
  H        -1.29494128    -2.24290409    -2.47593300
  H        -2.36381339    -4.09424490    -1.23121400
  H        -2.36381339    -4.09424490     1.23121400
  H        -1.29494128    -2.24290409     2.47593300
