39 
triphenyltriazine molec optimized by CAM-B3LYPa3p, SG=-62myx
  N         0.00000000    -1.35318880     0.00000000
  C         1.12748276    -0.65095247     0.00000000
  N         1.17189588     0.67659440     0.00000000
  C         0.00000000     1.30190495     0.00000000
  N        -1.17189588     0.67659440     0.00000000
  C        -1.12748276    -0.65095247     0.00000000
  C         2.40960815    -1.39118791     0.00000000
  C         3.61870593    -0.70333099     0.00000000
  C         4.81518311    -1.39552415     0.00000000
  C         4.81687816    -2.78102590     0.00000000
  C         3.61615092    -3.47230882     0.00000000
  C         2.41845547    -2.78222577     0.00000000
  H         3.60559649     0.37637930     0.00000000
  H         5.75087944    -0.85230111     0.00000000
  H         5.75411621    -3.32214054     0.00000000
  H         3.61355413    -4.55425714     0.00000000
  H         1.47684421    -3.31072780     0.00000000
  C         0.00000000     2.78237583     0.00000000
  C        -1.20025046     3.48555676     0.00000000
  C        -1.19903219     4.86783298     0.00000000
  C         0.00000000     5.56205181     0.00000000
  C         1.19903219     4.86783298     0.00000000
  C         1.20025046     3.48555676     0.00000000
  H        -2.12875228     2.93434851     0.00000000
  H        -2.13732531     5.40655825     0.00000000
  H        -0.00000000     6.64428109     0.00000000
  H         2.13732531     5.40655825     0.00000000
  H         2.12875228     2.93434851     0.00000000
  C        -2.40960815    -1.39118791     0.00000000
  C        -2.41845547    -2.78222577     0.00000000
  C        -3.61615092    -3.47230882     0.00000000
  C        -4.81687816    -2.78102590     0.00000000
  C        -4.81518311    -1.39552415     0.00000000
  C        -3.61870593    -0.70333099     0.00000000
  H        -1.47684421    -3.31072780     0.00000000
  H        -3.61355413    -4.55425714     0.00000000
  H        -5.75411621    -3.32214054     0.00000000
  H        -5.75087944    -0.85230111     0.00000000
  H        -3.60559649     0.37637930     0.00000000
