26 
SG=-43m
  C         0.88334591     0.88334591     0.88334591
  C         0.88334591    -0.88334591    -0.88334591
  C        -0.88334591    -0.88334591     0.88334591
  C        -0.88334591     0.88334591    -0.88334591
  C         1.76669182     0.00000000     0.00000000
  C         0.00000000    -1.76669182     0.00000000
  C        -1.76669182     0.00000000     0.00000000
  C         0.00000000     1.76669182     0.00000000
  C         0.00000000     0.00000000    -1.76669182
  C         0.00000000     0.00000000     1.76669182
  H         1.51265771     1.51265771     1.51265771
  H         1.51265771    -1.51265771    -1.51265771
  H        -1.51265771    -1.51265771     1.51265771
  H        -1.51265771     1.51265771    -1.51265771
  H         2.39600362    -0.62931179     0.62931179
  H        -0.62931179    -2.39600362    -0.62931179
  H        -2.39600362     0.62931179     0.62931179
  H         0.62931179     2.39600362    -0.62931179
  H        -0.62931179    -0.62931179    -2.39600362
  H        -0.62931179     0.62931179     2.39600362
  H         0.62931179     0.62931179    -2.39600362
  H         0.62931179    -0.62931179     2.39600362
  H         2.39600362     0.62931179    -0.62931179
  H         0.62931179    -2.39600362     0.62931179
  H        -2.39600362    -0.62931179    -0.62931179
  H        -0.62931179     2.39600362     0.62931179
