Cyclopentadecane, ID: C295487
  NIST    04042217083D 1   1.00000     0.00000      
NIST Chemistry WebBook
 45 45  0     0  0              1 V2000
    5.4139    2.1668    3.0841 C   0  0  0  0  0  0           0  0  0
    5.3864    1.1531    1.9531 C   0  0  0  0  0  0           0  0  0
    4.2883    1.4475    0.9365 C   0  0  0  0  0  0           0  0  0
    0.9516    2.4468    4.4001 C   0  0  0  0  0  0           0  0  0
    0.7915    1.7349    5.7369 C   0  0  0  0  0  0           0  0  0
    1.2504    1.4865    3.2515 C   0  0  0  0  0  0           0  0  0
    2.0499    1.6879    6.5898 C   0  0  0  0  0  0           0  0  0
    3.2438    1.0486    5.9011 C   0  0  0  0  0  0           0  0  0
    6.4385    1.8148    4.1510 C   0  0  0  0  0  0           0  0  0
    6.5970    2.9347    5.1717 C   0  0  0  0  0  0           0  0  0
    4.5013    1.1046    6.7544 C   0  0  0  0  0  0           0  0  0
    4.9188    2.5343    7.0680 C   0  0  0  0  0  0           0  0  0
    5.2863    3.3464    5.8367 C   0  0  0  0  0  0           0  0  0
    2.8954    1.0302    1.3960 C   0  0  0  0  0  0           0  0  0
    2.1939    2.1000    2.2272 C   0  0  0  0  0  0           0  0  0
    4.4077    2.2473    3.5771 H   0  0  0  0  0  0           0  0  0
    5.6209    3.1761    2.6742 H   0  0  0  0  0  0           0  0  0
    6.3696    1.1491    1.4413 H   0  0  0  0  0  0           0  0  0
    5.2619    0.1307    2.3638 H   0  0  0  0  0  0           0  0  0
    4.5272    0.9051    0.0000 H   0  0  0  0  0  0           0  0  0
    4.2967    2.5225    0.6670 H   0  0  0  0  0  0           0  0  0
    0.0304    3.0167    4.1700 H   0  0  0  0  0  0           0  0  0
    1.7526    3.2127    4.4803 H   0  0  0  0  0  0           0  0  0
    0.4161    0.7036    5.5743 H   0  0  0  0  0  0           0  0  0
    0.0000    2.2419    6.3246 H   0  0  0  0  0  0           0  0  0
    0.3092    1.1655    2.7653 H   0  0  0  0  0  0           0  0  0
    1.7046    0.5513    3.6462 H   0  0  0  0  0  0           0  0  0
    2.3420    2.7138    6.9140 H   0  0  0  0  0  0           0  0  0
    1.8284    1.1404    7.5281 H   0  0  0  0  0  0           0  0  0
    3.4573    1.5771    4.9359 H   0  0  0  0  0  0           0  0  0
    3.0125    0.0000    5.6312 H   0  0  0  0  0  0           0  0  0
    6.1301    0.8800    4.6737 H   0  0  0  0  0  0           0  0  0
    7.4184    1.5944    3.6844 H   0  0  0  0  0  0           0  0  0
    7.0439    3.8168    4.6711 H   0  0  0  0  0  0           0  0  0
    7.3317    2.6275    5.9420 H   0  0  0  0  0  0           0  0  0
    5.3251    0.5840    6.2152 H   0  0  0  0  0  0           0  0  0
    4.3476    0.5470    7.6984 H   0  0  0  0  0  0           0  0  0
    5.7583    2.5285    7.7898 H   0  0  0  0  0  0           0  0  0
    4.0668    3.0394    7.5766 H   0  0  0  0  0  0           0  0  0
    4.4512    3.2702    5.0966 H   0  0  0  0  0  0           0  0  0
    5.3459    4.4141    6.1229 H   0  0  0  0  0  0           0  0  0
    2.2730    0.7863    0.5128 H   0  0  0  0  0  0           0  0  0
    2.9662    0.0845    1.9736 H   0  0  0  0  0  0           0  0  0
    1.6514    2.8072    1.5714 H   0  0  0  0  0  0           0  0  0
    2.9512    2.7193    2.7620 H   0  0  0  0  0  0           0  0  0
  1  2  1  0     0  0
  1  9  1  0     0  0
  1 16  1  0     0  0
  1 17  1  0     0  0
  2  3  1  0     0  0
  2 18  1  0     0  0
  2 19  1  0     0  0
  3 14  1  0     0  0
  3 20  1  0     0  0
  3 21  1  0     0  0
  5  4  1  0     0  0
  6  4  1  0     0  0
  4 22  1  0     0  0
  4 23  1  0     0  0
  7  5  1  0     0  0
  5 24  1  0     0  0
  5 25  1  0     0  0
  6 15  1  0     0  0
  6 26  1  0     0  0
  6 27  1  0     0  0
  8  7  1  0     0  0
  7 28  1  0     0  0
  7 29  1  0     0  0
 11  8  1  0     0  0
  8 30  1  0     0  0
  8 31  1  0     0  0
 10  9  1  0     0  0
  9 32  1  0     0  0
  9 33  1  0     0  0
 13 10  1  0     0  0
 10 34  1  0     0  0
 10 35  1  0     0  0
 12 11  1  0     0  0
 11 36  1  0     0  0
 11 37  1  0     0  0
 13 12  1  0     0  0
 12 38  1  0     0  0
 12 39  1  0     0  0
 13 40  1  0     0  0
 13 41  1  0     0  0
 14 15  1  0     0  0
 14 42  1  0     0  0
 14 43  1  0     0  0
 15 44  1  0     0  0
 15 45  1  0     0  0
M  END
