Cyclobutane, ID: C287230
  NIST    04042217083D 1   1.00000     0.00000      
NIST Chemistry WebBook
 12 12  0     0  0              1 V2000
    1.8214    2.8381    0.9301 C   0  0  0  0  0  0           0  0  0
    0.6828    1.7991    0.9773 C   0  0  0  0  0  0           0  0  0
    1.7216    0.6597    0.9512 C   0  0  0  0  0  0           0  0  0
    2.8602    1.6987    0.9052 C   0  0  0  0  0  0           0  0  0
    1.8808    3.4987    1.8076 H   0  0  0  0  0  0           0  0  0
    1.8217    3.4832    0.0392 H   0  0  0  0  0  0           0  0  0
    0.0000    1.8221    0.1152 H   0  0  0  0  0  0           0  0  0
    0.0607    1.8363    1.8837 H   0  0  0  0  0  0           0  0  0
    1.6621    0.0000    0.0729 H   0  0  0  0  0  0           0  0  0
    1.7212    0.0138    1.8415 H   0  0  0  0  0  0           0  0  0
    3.4839    1.6615    0.0000 H   0  0  0  0  0  0           0  0  0
    3.5413    1.6759    1.7685 H   0  0  0  0  0  0           0  0  0
  2  1  1  0     0  0
  1  4  1  0     0  0
  1  5  1  0     0  0
  1  6  1  0     0  0
  3  2  1  0     0  0
  2  7  1  0     0  0
  2  8  1  0     0  0
  4  3  1  0     0  0
  3  9  1  0     0  0
  3 10  1  0     0  0
  4 11  1  0     0  0
  4 12  1  0     0  0
M  END
