26 
C10H16  adamantane (T_d, from NIST data)
  C         0.8854     0.8854     0.8854
  C         0.8854    -0.8854    -0.8854
  C        -0.8854    -0.8854     0.8854
  C        -0.8854     0.8854    -0.8854
  C         0.0000     0.0000     1.7666
  C         0.0000     0.0000    -1.7666
  C        -1.7666     0.0000     0.0000
  C         0.0000     1.7666     0.0000
  C         1.7666     0.0000     0.0000
  C         0.0000    -1.7666     0.0000
  H         1.5146     1.5146     1.5146
  H         1.5146    -1.5146    -1.5146
  H        -1.5146    -1.5146     1.5146
  H        -1.5146     1.5146    -1.5146
  H        -0.6192     0.6192     2.4164
  H         0.6192     0.6192    -2.4164
  H         0.6192    -0.6192     2.4164
  H        -0.6192    -0.6192    -2.4164
  H        -2.4164     0.6192     0.6192
  H         0.6192     2.4164    -0.6192
  H         2.4164    -0.6192     0.6192
  H        -0.6192    -2.4164    -0.6192
  H        -0.6192     2.4164     0.6192
  H         2.4164     0.6192    -0.6192
  H         0.6192    -2.4164     0.6192
  H        -2.4164    -0.6192    -0.6192
