26 
Twistane C10H16;  MacSpartan exported Fri, Jul 17, 1998 11:24:38 AM
  H        -0.8690     1.0770    -2.6230
  C        -0.7440     0.2390    -1.9170
  H        -1.4330    -0.5610    -2.2370
  C        -1.1140     0.6660    -0.4660
  C         0.7440    -0.2390    -1.9170
  H         0.8690    -1.0770    -2.6230
  C         1.1140    -0.6660    -0.4660
  H         1.4330     0.5610    -2.2370
  H         2.0770    -1.2050    -0.4460
  H         2.1410     1.0870     0.4460
  H         0.2680    -2.2670     0.8140
  C         0.0440     1.5930    -0.0000
  C        -0.0440    -1.5930    -0.0000
  H        -2.0770     1.2050    -0.4460
  C         1.1490     0.6020     0.4660
  H        -0.2680     2.2670     0.8140
  H         0.3940     2.2480    -0.8140
  C         0.7560     0.1970     1.9170
  H         0.9280     1.0270     2.6230
  H         1.3990    -0.6400     2.2370
  C        -0.7560    -0.1970     1.9170
  C        -1.1490    -0.6020     0.4660
  H        -0.9280    -1.0270     2.6230
  H        -1.3990     0.6400     2.2370
  H        -2.1410    -1.0870     0.4460
  H        -0.3940    -2.2480    -0.8140
