16 
C8H8 barrelene
  C         0.00000000     0.00000000     1.18568702
  C         0.00000000     0.00000000    -1.18568702
  C         1.44401546     0.00000000     0.68000000
  C        -0.72200773    -1.25055407    -0.68000000
  C        -0.72200773     1.25055407     0.68000000
  C         1.44401546     0.00000000    -0.68000000
  C        -0.72200773    -1.25055407     0.68000000
  C        -0.72200773     1.25055407    -0.68000000
  H         0.00000000     0.00000000     2.27568702
  H         0.00000000     0.00000000    -2.27568702
  H         2.38798315     0.00000000     1.22500000
  H        -1.19399157    -2.06805407    -1.22500000
  H        -1.19399157     2.06805407     1.22500000
  H         2.38798315     0.00000000    -1.22500000
  H        -1.19399157    -2.06805407     1.22500000
  H        -1.19399157     2.06805407    -1.22500000
