36 
annulene C18H18 optimized by PM6 under D6h constraint, symmetrized
  C        -2.53319608     1.46254144     0.00000000
  C         0.00000000     2.92508288     0.00000000
  C         2.53319608     1.46254144     0.00000000
  C         2.53319608    -1.46254144     0.00000000
  C         0.00000000    -2.92508288     0.00000000
  C        -2.53319608    -1.46254144     0.00000000
  C        -2.45701545    -2.85620914     0.00000000
  C        -1.24504195    -3.55594236     0.00000000
  C         1.24504195    -3.55594236     0.00000000
  C         2.45701545    -2.85620914     0.00000000
  C         3.70205739    -0.69973323     0.00000000
  C         3.70205739     0.69973323     0.00000000
  C         2.45701545     2.85620914     0.00000000
  C         1.24504195     3.55594236     0.00000000
  C        -1.24504195     3.55594236     0.00000000
  C        -2.45701545     2.85620914     0.00000000
  C        -3.70205739     0.69973323     0.00000000
  C        -3.70205739    -0.69973323     0.00000000
  H        -1.57772607     0.91090057     0.00000000
  H         0.00000000     1.82180114     0.00000000
  H         1.57772607     0.91090057     0.00000000
  H         1.57772607    -0.91090057     0.00000000
  H         0.00000000    -1.82180114     0.00000000
  H        -1.57772607    -0.91090057     0.00000000
  H        -3.38376499    -3.43603785     0.00000000
  H        -1.28381357    -4.64844537     0.00000000
  H         1.28381357    -4.64844537     0.00000000
  H         3.38376499    -3.43603785     0.00000000
  H         4.66757856    -1.21240751     0.00000000
  H         4.66757856     1.21240751     0.00000000
  H         3.38376499     3.43603785     0.00000000
  H         1.28381357     4.64844537     0.00000000
  H        -1.28381357     4.64844537     0.00000000
  H        -3.38376499     3.43603785     0.00000000
  H        -4.66757856     1.21240751     0.00000000
  H        -4.66757856    -1.21240751     0.00000000
